tests/data/power_flow/pandapower-asymmetric-line/input.json
{
  "node": [
    {
      "id": 1,
      "u_rated": 10500.0
    },
    {
      "id": 2,
      "u_rated": 10500.0
    },
    {
      "id": 5,
      "u_rated": 10500.0
    }
  ],
  "line": [
    {
      "id": 3,
      "from_node": 1,
      "to_node": 2,
      "from_status": 1,
      "to_status": 1,
      "r1": 0.25,
      "x1": 0.2,
      "c1": 1e-05,
      "tan1": 0.0,
      "r0": 0.25,
      "x0": 0.2,
      "c0": 1e-05,
      "tan0": 0.0,
      "i_n": 1000.0
    },
    {
      "id": 6,
      "from_node": 2,
      "to_node": 5,
      "from_status": 1,
      "to_status": 1,
      "r1": 0.25,
      "x1": 0.2,
      "c1": 1e-05,
      "tan1": 0.0,
      "r0": 0.25,
      "x0": 0.2,
      "c0": 1e-05,
      "tan0": 0.0,
      "i_n": 1000.0
    },
    {
      "id": 7,
      "from_node": 2,
      "to_node": 5,
      "from_status": 1,
      "to_status": 0,
      "r1": 0.25,
      "x1": 0.2,
      "c1": 1e-05,
      "tan1": 0.0,
      "r0": 0.25,
      "x0": 0.2,
      "c0": 1e-05,
      "tan0": 0.0,
      "i_n": 1000.0
    },
    {
      "id": 8,
      "from_node": 2,
      "to_node": 5,
      "from_status": 0,
      "to_status": 1,
      "r1": 0.25,
      "x1": 0.2,
      "c1": 1e-05,
      "tan1": 0.0,
      "r0": 0.25,
      "x0": 0.2,
      "c0": 1e-05,
      "tan0": 0.0,
      "i_n": 1000.0
    }
  ],
  "sym_load": [
    {
      "id": 9,
      "node": 5,
      "status": 1,
      "type": 0,
      "p_specified": 10000.0,
      "q_specified": 2000.0
    }
  ],
  "source": [
    {
      "id": 4,
      "node": 1,
      "status": 1,
      "u_ref": 1.0,
      "sk": 1e+20,
      "rx_ratio": 0.1,
      "z01_ratio": 1.0
    }
  ]
}