tests/data/power_flow/pandapower-asymmetric-line/asym_output.json
{
  "line": [
    {
      "id": 3,
      "p_from": [
        4695.8814548929695,
        4695.881454893016,
        4695.881454892952
      ],
      "q_from": [
        -462207.4905335865,
        -462207.4905335864,
        -462207.4905335864
      ],
      "i_from": [
        76.24839743746843,
        76.24839743746843,
        76.24839743746843
      ],
      "p_to": [
        -3582.7745935049666,
        -3582.7745935049825,
        -3582.7745935049825
      ],
      "q_to": [
        347393.2745344472,
        347393.2745344471,
        347393.2745344471
      ],
      "i_to": [
        57.183806769773675,
        57.183806769773675,
        57.18380676977367
      ]
    },
    {
      "id": 6,
      "p_from": [
        3559.994694328337,
        3559.9946943283517,
        3559.99469432832
      ],
      "q_from": [
        -231419.18867846852,
        -231419.18867846855,
        -231419.18867846852
      ],
      "i_from": [
        38.09599395821737,
        38.09599395821738,
        38.09599395821737
      ],
      "p_to": [
        -3356.156828755398,
        -3356.1568287553982,
        -3356.1568287553905
      ],
      "q_to": [
        115520.07439743083,
        115520.07439743081,
        115520.07439743081
      ],
      "i_to": [
        19.00515513345406,
        19.005155133454057,
        19.005155133454057
      ]
    },
    {
      "id": 7,
      "p_from": [
        22.782155958717645,
        22.782155958732794,
        22.78215595870876
      ],
      "q_from": [
        -115974.08407287946,
        -115974.08407287944,
        -115974.08407287947
      ],
      "i_from": [
        19.089278809980247,
        19.089278809980243,
        19.089278809980247
      ],
      "p_to": [
        3.520007206623888e-05,
        3.520007206623888e-05,
        3.520007206623888e-05
      ],
      "q_to": [
        3.5233657072901175e-05,
        3.5233657072901175e-05,
        3.523365707290116e-05
      ],
      "i_to": [
        8.195168176130778e-09,
        8.195168176130778e-09,
        8.195168176130776e-09
      ]
    },
    {
      "id": 8,
      "p_from": [
        3.997845746693945e-05,
        3.997845746693944e-05,
        3.997845746693944e-05
      ],
      "q_from": [
        4.14204938330558e-05,
        4.1420493833055794e-05,
        4.1420493833055794e-05
      ],
      "i_from": [
        9.463815800166677e-09,
        9.463815800166676e-09,
        9.463815800166676e-09
      ],
      "p_to": [
        22.8239258844536,
        22.82392588445454,
        22.82392588444653
      ],
      "q_to": [
        -116186.74070481297,
        -116186.74070481297,
        -116186.74070481294
      ],
      "i_to": [
        19.106772384844746,
        19.106772384844746,
        19.106772384844742
      ]
    }
  ],
  "node": [
    {
      "id": 1,
      "u_pu": [
        1.0,
        0.9999999999999999,
        0.9999999999999999
      ],
      "u": [
        6062.177826491071,
        6062.17782649107,
        6062.17782649107
      ],
      "u_angle": [
        3.569870931839551e-33,
        -2.0943951023931953,
        2.0943951023931953
      ]
    },
    {
      "id": 2,
      "u_pu": [
        1.002173158735389,
        1.0021731587353888,
        1.002173158735389
      ],
      "u": [
        6075.351901190192,
        6075.351901190191,
        6075.351901190192
      ],
      "u_angle": [
        -0.0027711068779860235,
        -2.0971662092711814,
        2.091623995515209
      ]
    },
    {
      "id": 5,
      "u_pu": [
        1.003091558552626,
        1.003091558552626,
        1.003091558552626
      ],
      "u": [
        6080.919404198099,
        6080.919404198099,
        6080.919404198099
      ],
      "u_angle": [
        -0.003964065144331764,
        -2.098359167537527,
        2.0904310372488633
      ]
    }
  ],
  "sym_load": [
    {
      "id": 9,
      "p": [
        3333.3333333333335,
        3333.3333333333335,
        3333.3333333333335
      ],
      "q": [
        666.6666666666666,
        666.6666666666666,
        666.6666666666666
      ]
    }
  ]
}