tests/data/power_flow/pandapower-asymmetric-line/pgm_asym_output.json
{
  "line": [
    {
      "id": 3,
      "energized": 1,
      "loading": 0.07624839707332197,
      "p_from": [
        4695.88420416217,
        4695.884204217108,
        4695.884204200862
      ],
      "q_from": [
        -462207.4882980264,
        -462207.48829801084,
        -462207.48829795676
      ],
      "i_from": [
        76.24839707332197,
        76.2483970733195,
        76.24839707331056
      ],
      "s_from": [
        462231.3420433854,
        462231.3420433704,
        462231.34204331605
      ],
      "p_to": [
        -3582.7773549060153,
        -3582.7773549686285,
        -3582.7773549560457
      ],
      "q_to": [
        347393.2722927691,
        347393.27229274134,
        347393.27229269827
      ],
      "i_to": [
        57.1838064072622,
        57.18380640725777,
        57.183806407250685
      ],
      "s_to": [
        347411.7469629558,
        347411.74696292874,
        347411.7469628855
      ]
    },
    {
      "id": 6,
      "energized": 1,
      "loading": 0.03809599389208815,
      "p_from": [
        3559.9951637920144,
        3559.9951638053776,
        3559.9951638406824
      ],
      "q_from": [
        -231419.18826227155,
        -231419.18826227201,
        -231419.18826231302
      ],
      "i_from": [
        38.09599389208117,
        38.0959938920813,
        38.095993892088146
      ],
      "s_from": [
        231446.56891285922,
        231446.56891285992,
        231446.56891290145
      ],
      "p_to": [
        -3356.157299154419,
        -3356.1572991708254,
        -3356.1572992168535
      ],
      "q_to": [
        115520.07398827987,
        115520.07398827023,
        115520.0739883126
      ],
      "i_to": [
        19.00515506913142,
        19.005155069129927,
        19.005155069137114
      ],
      "s_to": [
        115568.81623549806,
        115568.81623548892,
        115568.8162355326
      ]
    },
    {
      "id": 7,
      "energized": 1,
      "loading": 0.019089278803586386,
      "p_from": [
        22.782191123539356,
        22.782191123551137,
        22.782191123541885
      ],
      "q_from": [
        -115974.08403045688,
        -115974.08403045675,
        -115974.08403045672
      ],
      "i_from": [
        19.089278803586385,
        19.089278803586375,
        19.089278803586375
      ],
      "s_from": [
        115974.08626814745,
        115974.08626814732,
        115974.0862681473
      ],
      "p_to": [
        0.0,
        0.0,
        0.0
      ],
      "q_to": [
        0.0,
        -0.0,
        0.0
      ],
      "i_to": [
        0.0,
        0.0,
        0.0
      ],
      "s_to": [
        0.0,
        0.0,
        0.0
      ]
    },
    {
      "id": 8,
      "energized": 1,
      "loading": 0.019106772377335653,
      "p_from": [
        0.0,
        0.0,
        0.0
      ],
      "q_from": [
        0.0,
        -0.0,
        0.0
      ],
      "i_from": [
        0.0,
        0.0,
        0.0
      ],
      "s_from": [
        0.0,
        0.0,
        0.0
      ],
      "p_to": [
        22.823965834702086,
        22.8239658347044,
        22.823965834695148
      ],
      "q_to": [
        -116186.74065494351,
        -116186.74065494338,
        -116186.7406549433
      ],
      "i_to": [
        19.106772377335652,
        19.106772377335645,
        19.106772377335638
      ],
      "s_to": [
        116186.74289673724,
        116186.7428967371,
        116186.74289673702
      ]
    }
  ],
  "node": [
    {
      "id": 1,
      "energized": 1,
      "u_pu": [
        1.0000000000000138,
        1.0000000000000138,
        1.0000000000000135
      ],
      "u": [
        6062.177826491155,
        6062.177826491155,
        6062.177826491154
      ],
      "u_angle": [
        -1.5423841909952919e-15,
        -2.094395102393197,
        2.094395102393194
      ]
    },
    {
      "id": 2,
      "energized": 1,
      "u_pu": [
        1.0021731587045333,
        1.0021731587045328,
        1.0021731587045326
      ],
      "u": [
        6075.35190100314,
        6075.351901003137,
        6075.351901003135
      ],
      "u_angle": [
        -0.0027711068778275972,
        -2.0971662092710233,
        2.091623995515368
      ]
    },
    {
      "id": 5,
      "energized": 1,
      "u_pu": [
        1.003091558516371,
        1.0030915585163707,
        1.0030915585163702
      ],
      "u": [
        6080.919403978316,
        6080.919403978313,
        6080.919403978311
      ],
      "u_angle": [
        -0.003964065144002526,
        -2.098359167537198,
        2.0904310372491928
      ]
    }
  ],
  "source": [
    {
      "id": 4,
      "energized": 1,
      "p": [
        5496.175498658156,
        4194.313584715892,
        -12.456214924405629
      ],
      "q": [
        -461730.5543296205,
        -463343.0585123472,
        -458802.64049158705
      ],
      "i": [
        76.17118435759889,
        76.43491422510472,
        75.68280802581404
      ],
      "s": [
        461763.26483020576,
        463362.0421851831,
        458802.6406606764
      ],
      "pf": [
        0.0119025828108677,
        0.009051914492036942,
        -2.71493967568902e-05
      ]
    }
  ],
  "sym_load": [
    {
      "id": 9,
      "energized": 1,
      "p": [
        3333.333333333333,
        3333.333333333333,
        3333.333333333333
      ],
      "q": [
        666.6666666666666,
        666.6666666666666,
        666.6666666666666
      ],
      "i": [
        0.5590184833186966,
        0.5590184833186969,
        0.5590184833186972
      ],
      "s": [
        3399.34634239519,
        3399.34634239519,
        3399.34634239519
      ],
      "pf": [
        0.9805806756909201,
        0.9805806756909201,
        0.9805806756909201
      ]
    }
  ]
}